$DATA1 SOURCE='HSPICE' VERSION='P-2019.06-SP1-1 win64' PARAM_COUNT=0
.TITLE ''
 tsetup           thold            temper           alter#          
 -5.000e-10        5.500e-09         25.0000        1               
